/*--------------------------------*- C++ -*----------------------------------*\
| =========                 |                                                 |
| \\      /  F ield         | foam-extend: Open Source CFD                    |
|  \\    /   O peration     | Version:  3.0                                   |
|   \\  /    A nd           | Web:         http://www.extend-project.de       |
|    \\/     M anipulation  |                                                 |
\*---------------------------------------------------------------------------*/
FoamFile
{
    version     2.0;
    format      ascii;
    class       polyBoundaryMesh;
    location    "constant/polyMesh";
    object      boundary;
}
// * * * * * * * * * * * * * * * * * * * * * * * * * * * * * * * * * * * * * //


6
(
left
{
    type            wall;
    nFaces          5;
    startFace       175;
}

right
{
    type            patch;
    nFaces          5;
    startFace       180;
}

bottom
{
    type            symmetryPlane;
    nFaces          20;
    startFace       185;
}

fsiFace
{
    type            wall;
    nFaces          20;
    startFace       205;
}

front
{
    type            empty;
    nFaces          100;
    startFace       225;
}

back
{
    type            empty;
    nFaces          100;
    startFace       325;
}

)


// ************************************************************************* //
