/*--------------------------------*- C++ -*----------------------------------*\
| =========                 |                                                 |
| \\      /  F ield         | foam-extend: Open Source CFD                    |
|  \\    /   O peration     | Version:  3.0                                   |
|   \\  /    A nd           | Web:         http://www.extend-project.de       |
|    \\/     M anipulation  |                                                 |
\*---------------------------------------------------------------------------*/
FoamFile
{
    version     2.0;
    format      ascii;
    class       polyBoundaryMesh;
    location    "constant/polyMesh";
    object      boundary;
}
// * * * * * * * * * * * * * * * * * * * * * * * * * * * * * * * * * * * * * //

4
(
    plateFix
    {
        type            wall;
        nFaces          4;
        startFace       283;
    }
    plate
    {
        type            wall;
        nFaces          82;
        startFace       287;
    }
    frontAndBackPlanes
    {
        type            empty;
        nFaces          328;
        startFace       369;
    }
    procBoundary0to1
    {
        type            processor;
        nFaces          4;
        startFace       697;
        myProcNo        0;
        neighbProcNo    1;
    }
)

// ************************************************************************* //
