/*--------------------------------*- C++ -*----------------------------------*\
| =========                 |                                                 |
| \\      /  F ield         | foam-extend: Open Source CFD                    |
|  \\    /   O peration     | Version:  3.0                                   |
|   \\  /    A nd           | Web:         http://www.extend-project.de       |
|    \\/     M anipulation  |                                                 |
\*---------------------------------------------------------------------------*/
FoamFile
{
    version     2.0;
    format      ascii;
    class       polyBoundaryMesh;
    location    "constant/polyMesh";
    object      boundary;
}
// * * * * * * * * * * * * * * * * * * * * * * * * * * * * * * * * * * * * * //


6
(
left
{
    type            wall;
    nFaces          100;
    startFace       19800;
}

right
{
    type            wall;
    nFaces          100;
    startFace       19900;
}

fsiFace
{
    type            wall;
    nFaces          100;
    startFace       20000;
}

top
{
    type            wall;
    nFaces          100;
    startFace       20100;
}

front
{
    type            empty;
    nFaces          10000;
    startFace       20200;
}

back
{
    type            empty;
    nFaces          10000;
    startFace       30200;
}

)


// ************************************************************************* //
